/*--------------------------------*- C++ -*----------------------------------*\
| =========                 |                                                 |
| \\      /  F ield         | OpenFOAM: The Open Source CFD Toolbox           |
|  \\    /   O peration     | Version:  1.6                                   |
|   \\  /    A nd           | Web:      http://www.OpenFOAM.org               |
|    \\/     M anipulation  |                                                 |
\*---------------------------------------------------------------------------*/
FoamFile
{
    version     2.0;
    format      ascii;
    class       dictionary;
    object      turbineProperties;
}
// * * * * * * * * * * * * * * * * * * * * * * * * * * * * * * * * * * * * * //

NumBl                   3;
TipRad                  0.5;
HubRad                  0.1;
Js                      0.833;
Vs			1;
CTPDES                  0.5505;
OverHang                0.01;
Baseline2Shft           0.5;
ShftTilt                0.0;
Rake                (0 0 0);
YawRate                 0.0;
SpeedControllerType    "none";
YawControllerType      "none";
sectionPoints           10;
meanADchord             0.1763;
a0                      1;
BladeData
(
//	r/R	  c/D	Cd	Pitch(P/D)
(	0.200	0.1600 	0.08	0.9921 )
(	0.300	0.1818 	0.08	0.9967 )
(	0.400	0.2024	0.08	0.9987 )
(	0.500	0.2196	0.08	0.9975 )
(	0.600	0.2305	0.08 	0.9944 )
(	0.700	0.2311	0.08	0.9907 )
(	0.800	0.2173	0.08	0.9850 )
(	0.900	0.1806	0.08	0.9788 )
(       0.950   0.1387  0.08    0.9740 )
(	1.000	0.0010	0.08	0.9680 )

);

camberSlope (.7223 0.1953 0.1069 0.0427 0.0075 -0.0739 -0.1081 -0.1158 -0.1089 -1.2228);

