/*--------------------------------*- C++ -*----------------------------------*\
| =========                 |                                                 |
| \\      /  F ield         | OpenFOAM: The Open Source CFD Toolbox           |
|  \\    /   O peration     | Version:  1.7.1                                 |
|   \\  /    A nd           | Web:      www.OpenFOAM.com                      |
|    \\/     M anipulation  |                                                 |
\*---------------------------------------------------------------------------*/
FoamFile
{
    version     2.0;
    format      ascii;
    class       dictionary;
    location    "system";
    object      controlDict;
}
// * * * * * * * * * * * * * * * * * * * * * * * * * * * * * * * * * * * * * //

application       pisoFoamVLM2D;

startFrom         startTime;

startTime         0;

stopAt            endTime;

endTime           20;

deltaT            0.01;

//writeControl    timeStep;
writeControl      adjustableRunTime;

writeInterval     0.2;

purgeWrite        0;

writeFormat       ascii;

writePrecision    6;

writeCompression  uncompressed;

timeFormat        general;

timePrecision     6;

runTimeModifiable yes;

adjustTimeStep    no;

maxCo             0.75;

maxDeltaT         0.1;

//functions
//{
//    probes
//    {
//        type            probes;
//        functionObjectLibs ("libsampling.so");
//        enabled         true;
//        outputControl   timeStep;
//        outputInterval  5;
//        probeLocations
//        (
//            ( -126.0 32.0 0.0 )
//            (    0.0 32.0 0.0 )
//            (  126.0 32.0 0.0 )
//            (  252.0 32.0 0.0 )
//            (  378.0 32.0 0.0 )
//            (  504.0 32.0 0.0 )
//        );
//
//        fields
//        (
//            p
//            U
//        );
//    }
//}


// ************************************************************************* //
