/*--------------------------------*- C++ -*----------------------------------*\
| =========                 |                                                 |
| \\      /  F ield         | OpenFOAM: The Open Source CFD Toolbox           |
|  \\    /   O peration     | Version:  2.1.x                                 |
|   \\  /    A nd           | Web:      www.OpenFOAM.org                      |
|    \\/     M anipulation  |                                                 |
\*---------------------------------------------------------------------------*/
FoamFile
{
    version     2.0;
    format      binary;
    class       volScalarField;
    location    "0";
    object      k;
}
// * * * * * * * * * * * * * * * * * * * * * * * * * * * * * * * * * * * * * //

dimensions      [0 2 -2 0 0 0 0];

internalField   uniform 0.015;

boundaryField
{
    inlet
    {
        type            fixedValue;
        value           uniform 0.015;
    }
    outlet
    {
        type            inletOutlet;
        inletValue      uniform 0.015;
        value           uniform 0.015;
    }
    walls
    {
        type            kqRWallFunction;
        value           uniform 0.015;
    }
}


// ************************************************************************* //
